
Spectre (R) Circuit Simulator
Version 23.1.0.802.isr17 64bit -- 10 Apr 2025
Copyright (C) 1989-2025 Cadence Design Systems, Inc. All rights reserved worldwide. Cadence and Spectre are registered trademarks of Cadence Design Systems, Inc. All others are the property of their respective holders.

Includes RSA BSAFE(R) Cryptographic or Security Protocol Software from RSA Security, Inc.

User: ics15   Host: pantin   HostID: C38A0F02   PID: 1013809
Memory  available: 28.0376 GB  physical: 33.0497 GB
Linux   : Rocky Linux release 9.6 (Blue Onyx)
CPU Type: Intel(R) Core(TM) i9-14900
        Socket: Processors [Frequency] (Hyperthreaded Processor)
        0:       0 [4668.2] (  1 ),  1 [4190.9] (),  2 [800.0] (  3 )
                 3 [5500.0] (),  4 [798.5] (  5 ),  5 [800.0] (),  6 [793.9] (  7 )
                 7 [1276.4] (),  8 [1067.0] (  9 ),  9 [1222.1] (), 10 [800.0] ( 11 )
                11 [1246.3] (), 12 [800.0] ( 13 ), 13 [800.0] (), 14 [800.0] ( 15 )
                15 [800.0] (), 16 [4300.5] (), 17 [4199.4] (), 18 [800.0] (), 19 [3616.4] ()
                20 [800.0] (), 21 [800.0] (), 22 [802.3] (), 23 [800.0] (), 24 [795.6] ()
                25 [799.3] (), 26 [800.0] (), 27 [800.0] (), 28 [800.0] (), 29 [800.0] ()
                30 [800.0] (), 31 [800.0] ()
        
System load averages (1min, 5min, 15min) : 0.6 %, 0.3 %, 0.1 %
Hyperthreading is enabled
HPC is enabled


Simulating `input.scs' on pantin at 2:15:25 PM, Thur Feb 5, 2026 (process id: 1013809).
Current working directory: /home/ics15/ICS_ADC_PROJECT_26/SAR_XFAB_TEMPLATE/Sim/test_switch/spectre/schematic/netlist
Command line:
    /usr/local/cadence/spectre/tools/bin/spectre -64 input.scs  \
        +escchars +log ../psf/spectre.out -format psfxl -raw ../psf  \
        +aps +mt +lqtimeout 900 -maxw 5 -maxn 5 -env ade  \
        +adespetkn=adespe

Licensing Information:
[14:15:25.090513] Configured Lic search path (22.01-s002): 30000@cadence.cnfm.fr

Licensing Information:
[14:15:26.243664] Periodic Lic check successful

Loading /usr/local/cadence/spectre/tools.lnx86/cmi/lib/64bit/5.0/libinfineon_sh.so ...
Loading /usr/local/cadence/spectre/tools.lnx86/cmi/lib/64bit/5.0/libphilips_I_sh.so ...
Loading /usr/local/cadence/spectre/tools.lnx86/cmi/lib/64bit/5.0/libphilips_sh.so ...
Loading /usr/local/cadence/spectre/tools.lnx86/cmi/lib/64bit/5.0/libsparam_sh.so ...
Loading /usr/local/cadence/spectre/tools.lnx86/cmi/lib/64bit/5.0/libstmodels_sh.so ...
Reading file:  /home/ics15/ICS_ADC_PROJECT_26/SAR_XFAB_TEMPLATE/Sim/test_switch/spectre/schematic/netlist/input.scs
Reading link:  /usr/local/cadence/spectre
Reading file:  /usr/local/cadence/spectre_23.10.802/tools.lnx86/spectre/etc/configs/spectre.cfg
Reading file:  /usr/local/XFAB/xh018/cadence/v10_1/spectre/v10_1_1/lpmos/config.scs
Reading file:  /usr/local/XFAB/xh018/cadence/v10_1/spectre/v10_1_1/lpmos/param.scs
Reading file:  /usr/local/XFAB/xh018/cadence/v10_1/spectre/v10_1_1/lpmos/bip.scs
Reading file:  /usr/local/XFAB/xh018/cadence/v10_1/spectre/v10_1_1/lpmos/models/bip/tm_bip.scs
Reading file:  /usr/local/XFAB/xh018/cadence/v10_1/spectre/v10_1_1/lpmos/models/bip/qpva.scs
Reading file:  /usr/local/XFAB/xh018/cadence/v10_1/spectre/v10_1_1/lpmos/models/bip/qpvb.scs
Reading file:  /usr/local/XFAB/xh018/cadence/v10_1/spectre/v10_1_1/lpmos/models/bip/qpvc.scs
Reading file:  /usr/local/XFAB/xh018/cadence/v10_1/spectre/v10_1_1/lpmos/models/bip/qpva3.scs
Reading file:  /usr/local/XFAB/xh018/cadence/v10_1/spectre/v10_1_1/lpmos/models/bip/qpvb3.scs
Reading file:  /usr/local/XFAB/xh018/cadence/v10_1/spectre/v10_1_1/lpmos/models/bip/qpvc3.scs
Reading file:  /usr/local/XFAB/xh018/cadence/v10_1/spectre/v10_1_1/lpmos/models/bip/qnva.scs
Reading file:  /usr/local/XFAB/xh018/cadence/v10_1/spectre/v10_1_1/lpmos/models/bip/qnvb.scs
Reading file:  /usr/local/XFAB/xh018/cadence/v10_1/spectre/v10_1_1/lpmos/models/bip/qnvba.scs
Reading file:  /usr/local/XFAB/xh018/cadence/v10_1/spectre/v10_1_1/lpmos/models/bip/qnvbb.scs
Reading file:  /usr/local/XFAB/xh018/cadence/v10_1/spectre/v10_1_1/lpmos/models/bip/qnvc.scs
Reading file:  /usr/local/XFAB/xh018/cadence/v10_1/spectre/v10_1_1/lpmos/models/bip/qnvca.scs
Reading file:  /usr/local/XFAB/xh018/cadence/v10_1/spectre/v10_1_1/lpmos/models/bip/qnvcb.scs
Reading file:  /usr/local/XFAB/xh018/cadence/v10_1/spectre/v10_1_1/lpmos/models/bip/qpvhscr.scs
Reading file:  /usr/local/XFAB/xh018/cadence/v10_1/spectre/v10_1_1/lpmos/models/bip/qpvascr.scs
Reading file:  /usr/local/XFAB/xh018/cadence/v10_1/spectre/v10_1_1/lpmos/models/bip/qpvhbscr.scs
Reading file:  /usr/local/XFAB/xh018/cadence/v10_1/spectre/v10_1_1/lpmos/models/bip/qpv_pa.scs
Reading file:  /usr/local/XFAB/xh018/cadence/v10_1/spectre/v10_1_1/lpmos/models/bip/qpv_pb.scs
Reading file:  /usr/local/XFAB/xh018/cadence/v10_1/spectre/v10_1_1/lpmos/models/bip/qpv_pc.scs
Reading file:  /usr/local/XFAB/xh018/cadence/v10_1/spectre/v10_1_1/lpmos/models/bip/qpv_pd.scs
Reading file:  /usr/local/XFAB/xh018/cadence/v10_1/spectre/v10_1_1/lpmos/models/bip/qpv_pe.scs
Reading file:  /usr/local/XFAB/xh018/cadence/v10_1/spectre/v10_1_1/lpmos/models/bip/qpv_pf.scs
Reading file:  /usr/local/XFAB/xh018/cadence/v10_1/spectre/v10_1_1/lpmos/models/bip/qpl_pa.scs
Reading file:  /usr/local/XFAB/xh018/cadence/v10_1/spectre/v10_1_1/lpmos/models/bip/qpl_pb.scs
Reading file:  /usr/local/XFAB/xh018/cadence/v10_1/spectre/v10_1_1/lpmos/models/bip/qpl_pc.scs
Reading file:  /usr/local/XFAB/xh018/cadence/v10_1/spectre/v10_1_1/lpmos/models/bip/qpl_pd.scs
Reading file:  /usr/local/XFAB/xh018/cadence/v10_1/spectre/v10_1_1/lpmos/models/bip/qpl_pe.scs
Reading file:  /usr/local/XFAB/xh018/cadence/v10_1/spectre/v10_1_1/lpmos/models/bip/qpl_pf.scs
Reading file:  /usr/local/XFAB/xh018/cadence/v10_1/spectre/v10_1_1/lpmos/models/bip/qnl_pa.scs
Reading file:  /usr/local/XFAB/xh018/cadence/v10_1/spectre/v10_1_1/lpmos/models/bip/qnl_pb.scs
Reading file:  /usr/local/XFAB/xh018/cadence/v10_1/spectre/v10_1_1/lpmos/models/bip/qnl_pc.scs
Reading file:  /usr/local/XFAB/xh018/cadence/v10_1/spectre/v10_1_1/lpmos/models/bip/qnl_pd.scs
Reading file:  /usr/local/XFAB/xh018/cadence/v10_1/spectre/v10_1_1/lpmos/models/bip/qnl_pe.scs
Reading file:  /usr/local/XFAB/xh018/cadence/v10_1/spectre/v10_1_1/lpmos/models/bip/qnl_pf.scs
Reading file:  /usr/local/XFAB/xh018/cadence/v10_1/spectre/v10_1_1/lpmos/cap.scs
Reading file:  /usr/local/XFAB/xh018/cadence/v10_1/spectre/v10_1_1/lpmos/models/cap/tm_cap.scs
Reading file:  /usr/local/XFAB/xh018/cadence/v10_1/spectre/v10_1_1/lpmos/models/cap/csandwt3.scs
Reading file:  /usr/local/XFAB/xh018/cadence/v10_1/spectre/v10_1_1/lpmos/models/cap/csandwt4.scs
Reading file:  /usr/local/XFAB/xh018/cadence/v10_1/spectre/v10_1_1/lpmos/models/cap/csandwt5.scs
Reading file:  /usr/local/XFAB/xh018/cadence/v10_1/spectre/v10_1_1/lpmos/models/cap/csf2p.scs
Reading file:  /usr/local/XFAB/xh018/cadence/v10_1/spectre/v10_1_1/lpmos/models/cap/csf3p.scs
Reading file:  /usr/local/XFAB/xh018/cadence/v10_1/spectre/v10_1_1/lpmos/models/cap/csf3.scs
Reading file:  /usr/local/XFAB/xh018/cadence/v10_1/spectre/v10_1_1/lpmos/models/cap/csf4.scs
Reading file:  /usr/local/XFAB/xh018/cadence/v10_1/spectre/v10_1_1/lpmos/models/cap/csf5.scs
Reading file:  /usr/local/XFAB/xh018/cadence/v10_1/spectre/v10_1_1/lpmos/models/cap/csft4.scs
Reading file:  /usr/local/XFAB/xh018/cadence/v10_1/spectre/v10_1_1/lpmos/models/cap/csft5.scs
Reading file:  /usr/local/XFAB/xh018/cadence/v10_1/spectre/v10_1_1/lpmos/models/cap/csft6.scs
Reading file:  /usr/local/XFAB/xh018/cadence/v10_1/spectre/v10_1_1/lpmos/models/cap/csf3a.scs
Reading file:  /usr/local/XFAB/xh018/cadence/v10_1/spectre/v10_1_1/lpmos/models/cap/csf4a.scs
Reading file:  /usr/local/XFAB/xh018/cadence/v10_1/spectre/v10_1_1/lpmos/models/cap/csf5a.scs
Reading file:  /usr/local/XFAB/xh018/cadence/v10_1/spectre/v10_1_1/lpmos/models/cap/csft4a.scs
Reading file:  /usr/local/XFAB/xh018/cadence/v10_1/spectre/v10_1_1/lpmos/models/cap/csft5a.scs
Reading file:  /usr/local/XFAB/xh018/cadence/v10_1/spectre/v10_1_1/lpmos/models/cap/csft6a.scs
Reading file:  /usr/local/XFAB/xh018/cadence/v10_1/spectre/v10_1_1/lpmos/models/cap/cif3a.scs
Reading file:  /usr/local/XFAB/xh018/cadence/v10_1/spectre/v10_1_1/lpmos/models/cap/cif4a.scs
Reading file:  /usr/local/XFAB/xh018/cadence/v10_1/spectre/v10_1_1/lpmos/models/cap/cif5a.scs
Reading file:  /usr/local/XFAB/xh018/cadence/v10_1/spectre/v10_1_1/lpmos/models/cap/cift4a.scs
Reading file:  /usr/local/XFAB/xh018/cadence/v10_1/spectre/v10_1_1/lpmos/models/cap/cift5a.scs
Reading file:  /usr/local/XFAB/xh018/cadence/v10_1/spectre/v10_1_1/lpmos/models/cap/cift6a.scs
Reading file:  /usr/local/XFAB/xh018/cadence/v10_1/spectre/v10_1_1/lpmos/models/cap/cmm3.scs
Reading file:  /usr/local/XFAB/xh018/cadence/v10_1/spectre/v10_1_1/lpmos/models/cap/cmm4t.scs
Reading file:  /usr/local/XFAB/xh018/cadence/v10_1/spectre/v10_1_1/lpmos/models/cap/cmm4.scs
Reading file:  /usr/local/XFAB/xh018/cadence/v10_1/spectre/v10_1_1/lpmos/models/cap/cmm5t.scs
Reading file:  /usr/local/XFAB/xh018/cadence/v10_1/spectre/v10_1_1/lpmos/models/cap/cmm6t.scs
Reading file:  /usr/local/XFAB/xh018/cadence/v10_1/spectre/v10_1_1/lpmos/models/cap/cdmm4.scs
Reading file:  /usr/local/XFAB/xh018/cadence/v10_1/spectre/v10_1_1/lpmos/models/cap/cdmm4t.scs
Reading file:  /usr/local/XFAB/xh018/cadence/v10_1/spectre/v10_1_1/lpmos/models/cap/ctmm5.scs
Reading file:  /usr/local/XFAB/xh018/cadence/v10_1/spectre/v10_1_1/lpmos/models/cap/ctmm5t.scs
Reading file:  /usr/local/XFAB/xh018/cadence/v10_1/spectre/v10_1_1/lpmos/models/cap/cmmh3.scs
Reading file:  /usr/local/XFAB/xh018/cadence/v10_1/spectre/v10_1_1/lpmos/models/cap/cmmh4t.scs
Reading file:  /usr/local/XFAB/xh018/cadence/v10_1/spectre/v10_1_1/lpmos/models/cap/cmmh4.scs
Reading file:  /usr/local/XFAB/xh018/cadence/v10_1/spectre/v10_1_1/lpmos/models/cap/cmmh5t.scs
Reading file:  /usr/local/XFAB/xh018/cadence/v10_1/spectre/v10_1_1/lpmos/models/cap/cmmh6t.scs
Reading file:  /usr/local/XFAB/xh018/cadence/v10_1/spectre/v10_1_1/lpmos/models/cap/cdmmh4.scs
Reading file:  /usr/local/XFAB/xh018/cadence/v10_1/spectre/v10_1_1/lpmos/models/cap/cdmmh4t.scs
Reading file:  /usr/local/XFAB/xh018/cadence/v10_1/spectre/v10_1_1/lpmos/models/cap/ctmmh5.scs
Reading file:  /usr/local/XFAB/xh018/cadence/v10_1/spectre/v10_1_1/lpmos/models/cap/ctmmh5t.scs
Reading file:  /usr/local/XFAB/xh018/cadence/v10_1/spectre/v10_1_1/lpmos/models/cap/mosvc.scs
Reading file:  /usr/local/XFAB/xh018/cadence/v10_1/spectre/v10_1_1/lpmos/models/cap/mosvc_pmos.scs
Reading file:  /usr/local/XFAB/xh018/cadence/v10_1/spectre/v10_1_1/lpmos/models/cap/mosvci.scs
Reading file:  /usr/local/XFAB/xh018/cadence/v10_1/spectre/v10_1_1/lpmos/models/cap/mosvci_nmos.scs
Reading file:  /usr/local/XFAB/xh018/cadence/v10_1/spectre/v10_1_1/lpmos/models/cap/mosvci_m.scs
Reading file:  /usr/local/XFAB/xh018/cadence/v10_1/spectre/v10_1_1/lpmos/models/cap/mosvc3.scs
Reading file:  /usr/local/XFAB/xh018/cadence/v10_1/spectre/v10_1_1/lpmos/models/cap/mosvc3_pmos.scs
Reading file:  /usr/local/XFAB/xh018/cadence/v10_1/spectre/v10_1_1/lpmos/models/cap/mosvc3i.scs
Reading file:  /usr/local/XFAB/xh018/cadence/v10_1/spectre/v10_1_1/lpmos/models/cap/mosvc3i_nmos.scs
Reading file:  /usr/local/XFAB/xh018/cadence/v10_1/spectre/v10_1_1/lpmos/models/cap/mosvc3i_m.scs
Reading file:  /usr/local/XFAB/xh018/cadence/v10_1/spectre/v10_1_1/lpmos/models/cap/cpod.scs
Reading file:  /usr/local/XFAB/xh018/cadence/v10_1/spectre/v10_1_1/lpmos/models/cap/cpod_i.scs
Reading file:  /usr/local/XFAB/xh018/cadence/v10_1/spectre/v10_1_1/lpmos/models/cap/cpodhv.scs
Reading file:  /usr/local/XFAB/xh018/cadence/v10_1/spectre/v10_1_1/lpmos/models/cap/cpodhv_i.scs
Reading file:  /usr/local/XFAB/xh018/cadence/v10_1/spectre/v10_1_1/lpmos/models/cap/cp1sub.scs
Reading file:  /usr/local/XFAB/xh018/cadence/v10_1/spectre/v10_1_1/lpmos/models/cap/cp1suba.scs
Reading file:  /usr/local/XFAB/xh018/cadence/v10_1/spectre/v10_1_1/lpmos/models/cap/cp1subp.scs
Reading file:  /usr/local/XFAB/xh018/cadence/v10_1/spectre/v10_1_1/lpmos/models/cap/p_cap.scs
Reading file:  /usr/local/XFAB/xh018/cadence/v10_1/spectre/v10_1_1/lpmos/models/cap/tag_25v.scs
Reading file:  /usr/local/XFAB/xh018/cadence/v10_1/spectre/v10_1_1/lpmos/models/cap/tag_60v.scs
Reading file:  /usr/local/XFAB/xh018/cadence/v10_1/spectre/v10_1_1/lpmos/dio.scs
Reading file:  /usr/local/XFAB/xh018/cadence/v10_1/spectre/v10_1_1/lpmos/models/dio/tm_dio.scs
Reading file:  /usr/local/XFAB/xh018/cadence/v10_1/spectre/v10_1_1/lpmos/models/dio/dn.scs
Reading file:  /usr/local/XFAB/xh018/cadence/v10_1/spectre/v10_1_1/lpmos/models/dio/dp.scs
Reading file:  /usr/local/XFAB/xh018/cadence/v10_1/spectre/v10_1_1/lpmos/models/dio/dnw.scs
Reading file:  /usr/local/XFAB/xh018/cadence/v10_1/spectre/v10_1_1/lpmos/models/dio/dn3.scs
Reading file:  /usr/local/XFAB/xh018/cadence/v10_1/spectre/v10_1_1/lpmos/models/dio/dnn3.scs
Reading file:  /usr/local/XFAB/xh018/cadence/v10_1/spectre/v10_1_1/lpmos/models/dio/dp3.scs
Reading file:  /usr/local/XFAB/xh018/cadence/v10_1/spectre/v10_1_1/lpmos/models/dio/dnw3.scs
Reading file:  /usr/local/XFAB/xh018/cadence/v10_1/spectre/v10_1_1/lpmos/models/dio/ddnwmv.scs
Reading file:  /usr/local/XFAB/xh018/cadence/v10_1/spectre/v10_1_1/lpmos/models/dio/dpdnwmv.scs
Reading file:  /usr/local/XFAB/xh018/cadence/v10_1/spectre/v10_1_1/lpmos/models/dio/dipdnwmv.scs
Reading file:  /usr/local/XFAB/xh018/cadence/v10_1/spectre/v10_1_1/lpmos/models/dio/ddnw.scs
Reading file:  /usr/local/XFAB/xh018/cadence/v10_1/spectre/v10_1_1/lpmos/models/dio/ddnwa.scs
Reading file:  /usr/local/XFAB/xh018/cadence/v10_1/spectre/v10_1_1/lpmos/models/dio/dpdnw.scs
Reading file:  /usr/local/XFAB/xh018/cadence/v10_1/spectre/v10_1_1/lpmos/models/dio/dipdnw.scs
Reading file:  /usr/local/XFAB/xh018/cadence/v10_1/spectre/v10_1_1/lpmos/models/dio/dnhpw.scs
Reading file:  /usr/local/XFAB/xh018/cadence/v10_1/spectre/v10_1_1/lpmos/models/dio/dnhpwa.scs
Reading file:  /usr/local/XFAB/xh018/cadence/v10_1/spectre/v10_1_1/lpmos/models/dio/dphnw.scs
Reading file:  /usr/local/XFAB/xh018/cadence/v10_1/spectre/v10_1_1/lpmos/models/dio/dphnwa.scs
Reading file:  /usr/local/XFAB/xh018/cadence/v10_1/spectre/v10_1_1/lpmos/models/dio/dhpw.scs
Reading file:  /usr/local/XFAB/xh018/cadence/v10_1/spectre/v10_1_1/lpmos/models/dio/dhnw.scs
Reading file:  /usr/local/XFAB/xh018/cadence/v10_1/spectre/v10_1_1/lpmos/models/dio/dndf.scs
Reading file:  /usr/local/XFAB/xh018/cadence/v10_1/spectre/v10_1_1/lpmos/models/dio/dpdwhn.scs
Reading file:  /usr/local/XFAB/xh018/cadence/v10_1/spectre/v10_1_1/lpmos/models/dio/dwhn.scs
Reading file:  /usr/local/XFAB/xh018/cadence/v10_1/spectre/v10_1_1/lpmos/models/dio/dpwhn.scs
Reading file:  /usr/local/XFAB/xh018/cadence/v10_1/spectre/v10_1_1/lpmos/models/dio/dpndf.scs
Reading file:  /usr/local/XFAB/xh018/cadence/v10_1/spectre/v10_1_1/lpmos/models/dio/dpdddnw.scs
Reading file:  /usr/local/XFAB/xh018/cadence/v10_1/spectre/v10_1_1/lpmos/models/dio/ddpldnw.scs
Reading file:  /usr/local/XFAB/xh018/cadence/v10_1/spectre/v10_1_1/lpmos/models/dio/dn3dpl.scs
Reading file:  /usr/local/XFAB/xh018/cadence/v10_1/spectre/v10_1_1/lpmos/models/dio/dbn.scs
Reading file:  /usr/local/XFAB/xh018/cadence/v10_1/spectre/v10_1_1/lpmos/models/dio/dpol.scs
Reading file:  /usr/local/XFAB/xh018/cadence/v10_1/spectre/v10_1_1/lpmos/models/dio/dnpdd_scr.scs
Reading file:  /usr/local/XFAB/xh018/cadence/v10_1/spectre/v10_1_1/lpmos/models/dio/dpdd_scr.scs
Reading file:  /usr/local/XFAB/xh018/cadence/v10_1/spectre/v10_1_1/lpmos/models/dio/dsb.scs
Reading file:  /usr/local/XFAB/xh018/cadence/v10_1/spectre/v10_1_1/lpmos/models/dio/dsba.scs
Reading file:  /usr/local/XFAB/xh018/cadence/v10_1/spectre/v10_1_1/lpmos/models/dio/dsba_qp1.scs
Reading file:  /usr/local/XFAB/xh018/cadence/v10_1/spectre/v10_1_1/lpmos/models/dio/dnp20.scs
Reading file:  /usr/local/XFAB/xh018/cadence/v10_1/spectre/v10_1_1/lpmos/models/dio/dpp20.scs
Reading file:  /usr/local/XFAB/xh018/cadence/v10_1/spectre/v10_1_1/lpmos/models/dio/dn3sci.scs
Reading file:  /usr/local/XFAB/xh018/cadence/v10_1/spectre/v10_1_1/lpmos/models/dio/dscidnwmv.scs
Reading file:  /usr/local/XFAB/xh018/cadence/v10_1/spectre/v10_1_1/lpmos/mos.scs
Reading file:  /usr/local/XFAB/xh018/cadence/v10_1/spectre/v10_1_1/lpmos/models/mos/tm_mos.scs
Reading file:  /usr/local/XFAB/xh018/cadence/v10_1/spectre/v10_1_1/lpmos/models/mos/ne.scs
Reading file:  /usr/local/XFAB/xh018/cadence/v10_1/spectre/v10_1_1/lpmos/models/mos/nei.scs
Reading file:  /usr/local/XFAB/xh018/cadence/v10_1/spectre/v10_1_1/lpmos/models/mos/nei_6.scs
Reading file:  /usr/local/XFAB/xh018/cadence/v10_1/spectre/v10_1_1/lpmos/models/mos/nei_m_6.scs
Reading file:  /usr/local/XFAB/xh018/cadence/v10_1/spectre/v10_1_1/lpmos/models/mos/nei_a_6.scs
Reading file:  /usr/local/XFAB/xh018/cadence/v10_1/spectre/v10_1_1/lpmos/models/mos/pe.scs
Reading file:  /usr/local/XFAB/xh018/cadence/v10_1/spectre/v10_1_1/lpmos/models/mos/pe_5.scs
Reading file:  /usr/local/XFAB/xh018/cadence/v10_1/spectre/v10_1_1/lpmos/models/mos/pei.scs
Reading file:  /usr/local/XFAB/xh018/cadence/v10_1/spectre/v10_1_1/lpmos/models/mos/pei_5.scs
Reading file:  /usr/local/XFAB/xh018/cadence/v10_1/spectre/v10_1_1/lpmos/models/mos/pei_m_5.scs
Reading file:  /usr/local/XFAB/xh018/cadence/v10_1/spectre/v10_1_1/lpmos/models/mos/pei_a_5.scs
Reading file:  /usr/local/XFAB/xh018/cadence/v10_1/spectre/v10_1_1/lpmos/models/mos/nel.scs
Reading file:  /usr/local/XFAB/xh018/cadence/v10_1/spectre/v10_1_1/lpmos/models/mos/neli.scs
Reading file:  /usr/local/XFAB/xh018/cadence/v10_1/spectre/v10_1_1/lpmos/models/mos/neli_6.scs
Reading file:  /usr/local/XFAB/xh018/cadence/v10_1/spectre/v10_1_1/lpmos/models/mos/neli_m_6.scs
Reading file:  /usr/local/XFAB/xh018/cadence/v10_1/spectre/v10_1_1/lpmos/models/mos/pel.scs
Reading file:  /usr/local/XFAB/xh018/cadence/v10_1/spectre/v10_1_1/lpmos/models/mos/pel_5.scs
Reading file:  /usr/local/XFAB/xh018/cadence/v10_1/spectre/v10_1_1/lpmos/models/mos/peli.scs
Reading file:  /usr/local/XFAB/xh018/cadence/v10_1/spectre/v10_1_1/lpmos/models/mos/peli_5.scs
Reading file:  /usr/local/XFAB/xh018/cadence/v10_1/spectre/v10_1_1/lpmos/models/mos/peli_m_5.scs
Reading file:  /usr/local/XFAB/xh018/cadence/v10_1/spectre/v10_1_1/lpmos/models/mos/nn3.scs
Reading file:  /usr/local/XFAB/xh018/cadence/v10_1/spectre/v10_1_1/lpmos/models/mos/ne3.scs
Reading file:  /usr/local/XFAB/xh018/cadence/v10_1/spectre/v10_1_1/lpmos/models/mos/ne3i.scs
Reading file:  /usr/local/XFAB/xh018/cadence/v10_1/spectre/v10_1_1/lpmos/models/mos/ne3i_6.scs
Reading file:  /usr/local/XFAB/xh018/cadence/v10_1/spectre/v10_1_1/lpmos/models/mos/ne3i_m_6.scs
Reading file:  /usr/local/XFAB/xh018/cadence/v10_1/spectre/v10_1_1/lpmos/models/mos/ne3i_a_6.scs
Reading file:  /usr/local/XFAB/xh018/cadence/v10_1/spectre/v10_1_1/lpmos/models/mos/pe3.scs
Reading file:  /usr/local/XFAB/xh018/cadence/v10_1/spectre/v10_1_1/lpmos/models/mos/pe3_5.scs
Reading file:  /usr/local/XFAB/xh018/cadence/v10_1/spectre/v10_1_1/lpmos/models/mos/pe3i.scs
Reading file:  /usr/local/XFAB/xh018/cadence/v10_1/spectre/v10_1_1/lpmos/models/mos/pe3i_5.scs
Reading file:  /usr/local/XFAB/xh018/cadence/v10_1/spectre/v10_1_1/lpmos/models/mos/pe3i_m_5.scs
Reading file:  /usr/local/XFAB/xh018/cadence/v10_1/spectre/v10_1_1/lpmos/models/mos/pe3i_a_5.scs
Reading file:  /usr/local/XFAB/xh018/cadence/v10_1/spectre/v10_1_1/lpmos/models/mos/pe3ln.scs
Reading file:  /usr/local/XFAB/xh018/cadence/v10_1/spectre/v10_1_1/lpmos/models/mos/pe3ln_5.scs
Reading file:  /usr/local/XFAB/xh018/cadence/v10_1/spectre/v10_1_1/lpmos/models/mos/pe3lni.scs
Reading file:  /usr/local/XFAB/xh018/cadence/v10_1/spectre/v10_1_1/lpmos/models/mos/pe3lni_5.scs
Reading file:  /usr/local/XFAB/xh018/cadence/v10_1/spectre/v10_1_1/lpmos/models/mos/pe3lni_m_5.scs
Reading file:  /usr/local/XFAB/xh018/cadence/v10_1/spectre/v10_1_1/lpmos/models/mos/nd3.scs
Reading file:  /usr/local/XFAB/xh018/cadence/v10_1/spectre/v10_1_1/lpmos/models/mos/nd3_mos1.scs
Reading file:  /usr/local/XFAB/xh018/cadence/v10_1/spectre/v10_1_1/lpmos/models/mos/nd3_mos2.scs
Reading file:  /usr/local/XFAB/xh018/cadence/v10_1/spectre/v10_1_1/lpmos/models/mos/nd3i.scs
Reading file:  /usr/local/XFAB/xh018/cadence/v10_1/spectre/v10_1_1/lpmos/models/mos/nd3i_mos1.scs
Reading file:  /usr/local/XFAB/xh018/cadence/v10_1/spectre/v10_1_1/lpmos/models/mos/nd3i_mos2.scs
Reading file:  /usr/local/XFAB/xh018/cadence/v10_1/spectre/v10_1_1/lpmos/models/mos/nd3i_6.scs
Reading file:  /usr/local/XFAB/xh018/cadence/v10_1/spectre/v10_1_1/lpmos/models/mos/nd3i_m_6.scs
Reading file:  /usr/local/XFAB/xh018/cadence/v10_1/spectre/v10_1_1/lpmos/models/mos/nelna.scs
Reading file:  /usr/local/XFAB/xh018/cadence/v10_1/spectre/v10_1_1/lpmos/models/mos/nelnai.scs
Reading file:  /usr/local/XFAB/xh018/cadence/v10_1/spectre/v10_1_1/lpmos/models/mos/nelnai_6.scs
Reading file:  /usr/local/XFAB/xh018/cadence/v10_1/spectre/v10_1_1/lpmos/models/mos/nelnai_m_6.scs
Reading file:  /usr/local/XFAB/xh018/cadence/v10_1/spectre/v10_1_1/lpmos/models/mos/ne3lna.scs
Reading file:  /usr/local/XFAB/xh018/cadence/v10_1/spectre/v10_1_1/lpmos/models/mos/ne3lnai.scs
Reading file:  /usr/local/XFAB/xh018/cadence/v10_1/spectre/v10_1_1/lpmos/models/mos/ne3lnai_6.scs
Reading file:  /usr/local/XFAB/xh018/cadence/v10_1/spectre/v10_1_1/lpmos/models/mos/ne3lnai_m_6.scs
Reading file:  /usr/local/XFAB/xh018/cadence/v10_1/spectre/v10_1_1/lpmos/models/mos/pe3lna.scs
Reading file:  /usr/local/XFAB/xh018/cadence/v10_1/spectre/v10_1_1/lpmos/models/mos/pe3lna_5.scs
Reading file:  /usr/local/XFAB/xh018/cadence/v10_1/spectre/v10_1_1/lpmos/models/mos/pe3lnai.scs
Reading file:  /usr/local/XFAB/xh018/cadence/v10_1/spectre/v10_1_1/lpmos/models/mos/pe3lnai_5.scs
Reading file:  /usr/local/XFAB/xh018/cadence/v10_1/spectre/v10_1_1/lpmos/models/mos/pe3lnai_m_5.scs
Reading file:  /usr/local/XFAB/xh018/cadence/v10_1/spectre/v10_1_1/lpmos/models/mos/nmma.scs
Reading file:  /usr/local/XFAB/xh018/cadence/v10_1/spectre/v10_1_1/lpmos/models/mos/jf_nmma.scs
Reading file:  /usr/local/XFAB/xh018/cadence/v10_1/spectre/v10_1_1/lpmos/models/mos/nmma_bjt.scs
Reading file:  /usr/local/XFAB/xh018/cadence/v10_1/spectre/v10_1_1/lpmos/models/mos/pmma.scs
Reading file:  /usr/local/XFAB/xh018/cadence/v10_1/spectre/v10_1_1/lpmos/models/mos/jf_pmma.scs
Reading file:  /usr/local/XFAB/xh018/cadence/v10_1/spectre/v10_1_1/lpmos/models/mos/pmma_bjt.scs
Reading file:  /usr/local/XFAB/xh018/cadence/v10_1/spectre/v10_1_1/lpmos/models/mos/nedi.scs
Reading file:  /usr/local/XFAB/xh018/cadence/v10_1/spectre/v10_1_1/lpmos/models/mos/nedi_bjt.scs
Reading file:  /usr/local/XFAB/xh018/cadence/v10_1/spectre/v10_1_1/lpmos/models/mos/nedia.scs
Reading file:  /usr/local/XFAB/xh018/cadence/v10_1/spectre/v10_1_1/lpmos/models/mos/nedia_bjt.scs
Reading file:  /usr/local/XFAB/xh018/cadence/v10_1/spectre/v10_1_1/lpmos/models/mos/ped2.scs
Reading file:  /usr/local/XFAB/xh018/cadence/v10_1/spectre/v10_1_1/lpmos/models/mos/ped2_bjt.scs
Reading file:  /usr/local/XFAB/xh018/cadence/v10_1/spectre/v10_1_1/lpmos/models/mos/ped.scs
Reading file:  /usr/local/XFAB/xh018/cadence/v10_1/spectre/v10_1_1/lpmos/models/mos/ped_bjt.scs
Reading file:  /usr/local/XFAB/xh018/cadence/v10_1/spectre/v10_1_1/lpmos/models/mos/nhv.scs
Reading file:  /usr/local/XFAB/xh018/cadence/v10_1/spectre/v10_1_1/lpmos/models/mos/nhv_mos2.scs
Reading file:  /usr/local/XFAB/xh018/cadence/v10_1/spectre/v10_1_1/lpmos/models/mos/nhv_bjt.scs
Reading file:  /usr/local/XFAB/xh018/cadence/v10_1/spectre/v10_1_1/lpmos/models/mos/nhhv.scs
Reading file:  /usr/local/XFAB/xh018/cadence/v10_1/spectre/v10_1_1/lpmos/models/mos/nhhv_mos2.scs
Reading file:  /usr/local/XFAB/xh018/cadence/v10_1/spectre/v10_1_1/lpmos/models/mos/nhhv_bjt.scs
Reading file:  /usr/local/XFAB/xh018/cadence/v10_1/spectre/v10_1_1/lpmos/models/mos/nmmc.scs
Reading file:  /usr/local/XFAB/xh018/cadence/v10_1/spectre/v10_1_1/lpmos/models/mos/nmmc_mos2.scs
Reading file:  /usr/local/XFAB/xh018/cadence/v10_1/spectre/v10_1_1/lpmos/models/mos/nmmc_bjt.scs
Reading file:  /usr/local/XFAB/xh018/cadence/v10_1/spectre/v10_1_1/lpmos/models/mos/nmmd.scs
Reading file:  /usr/local/XFAB/xh018/cadence/v10_1/spectre/v10_1_1/lpmos/models/mos/nmmd_mos2.scs
Reading file:  /usr/local/XFAB/xh018/cadence/v10_1/spectre/v10_1_1/lpmos/models/mos/nmmd_bjt.scs
Reading file:  /usr/local/XFAB/xh018/cadence/v10_1/spectre/v10_1_1/lpmos/models/mos/nmc.scs
Reading file:  /usr/local/XFAB/xh018/cadence/v10_1/spectre/v10_1_1/lpmos/models/mos/nmc_mos2.scs
Reading file:  /usr/local/XFAB/xh018/cadence/v10_1/spectre/v10_1_1/lpmos/models/mos/nmc_bjt.scs
Reading file:  /usr/local/XFAB/xh018/cadence/v10_1/spectre/v10_1_1/lpmos/models/mos/nma.scs
Reading file:  /usr/local/XFAB/xh018/cadence/v10_1/spectre/v10_1_1/lpmos/models/mos/nma_bjt.scs
Reading file:  /usr/local/XFAB/xh018/cadence/v10_1/spectre/v10_1_1/lpmos/models/mos/phv.scs
Reading file:  /usr/local/XFAB/xh018/cadence/v10_1/spectre/v10_1_1/lpmos/models/mos/phv_mos2.scs
Reading file:  /usr/local/XFAB/xh018/cadence/v10_1/spectre/v10_1_1/lpmos/models/mos/phv_bjt.scs
Reading file:  /usr/local/XFAB/xh018/cadence/v10_1/spectre/v10_1_1/lpmos/models/mos/phhv.scs
Reading file:  /usr/local/XFAB/xh018/cadence/v10_1/spectre/v10_1_1/lpmos/models/mos/phhv_mos2.scs
Reading file:  /usr/local/XFAB/xh018/cadence/v10_1/spectre/v10_1_1/lpmos/models/mos/phhv_bjt.scs
Reading file:  /usr/local/XFAB/xh018/cadence/v10_1/spectre/v10_1_1/lpmos/models/mos/pmc.scs
Reading file:  /usr/local/XFAB/xh018/cadence/v10_1/spectre/v10_1_1/lpmos/models/mos/pmc_mos2.scs
Reading file:  /usr/local/XFAB/xh018/cadence/v10_1/spectre/v10_1_1/lpmos/models/mos/pmc_bjt.scs
Reading file:  /usr/local/XFAB/xh018/cadence/v10_1/spectre/v10_1_1/lpmos/models/mos/pmmc.scs
Reading file:  /usr/local/XFAB/xh018/cadence/v10_1/spectre/v10_1_1/lpmos/models/mos/pmmc_mos2.scs
Reading file:  /usr/local/XFAB/xh018/cadence/v10_1/spectre/v10_1_1/lpmos/models/mos/pmmc_bjt.scs
Reading file:  /usr/local/XFAB/xh018/cadence/v10_1/spectre/v10_1_1/lpmos/models/mos/pma.scs
Reading file:  /usr/local/XFAB/xh018/cadence/v10_1/spectre/v10_1_1/lpmos/models/mos/pma_bjt.scs
Reading file:  /usr/local/XFAB/xh018/cadence/v10_1/spectre/v10_1_1/lpmos/models/mos/pmb.scs
Reading file:  /usr/local/XFAB/xh018/cadence/v10_1/spectre/v10_1_1/lpmos/models/mos/nesvt.scs
Reading file:  /usr/local/XFAB/xh018/cadence/v10_1/spectre/v10_1_1/lpmos/models/mos/nesvti.scs
Reading file:  /usr/local/XFAB/xh018/cadence/v10_1/spectre/v10_1_1/lpmos/models/mos/nesvti_6.scs
Reading file:  /usr/local/XFAB/xh018/cadence/v10_1/spectre/v10_1_1/lpmos/models/mos/nesvti_m_6.scs
Reading file:  /usr/local/XFAB/xh018/cadence/v10_1/spectre/v10_1_1/lpmos/models/mos/pesvt.scs
Reading file:  /usr/local/XFAB/xh018/cadence/v10_1/spectre/v10_1_1/lpmos/models/mos/pesvt_5.scs
Reading file:  /usr/local/XFAB/xh018/cadence/v10_1/spectre/v10_1_1/lpmos/models/mos/pesvti.scs
Reading file:  /usr/local/XFAB/xh018/cadence/v10_1/spectre/v10_1_1/lpmos/models/mos/pesvti_5.scs
Reading file:  /usr/local/XFAB/xh018/cadence/v10_1/spectre/v10_1_1/lpmos/models/mos/pesvti_m_5.scs
Reading file:  /usr/local/XFAB/xh018/cadence/v10_1/spectre/v10_1_1/lpmos/models/mos/nhvd.scs
Reading file:  /usr/local/XFAB/xh018/cadence/v10_1/spectre/v10_1_1/lpmos/models/mos/nhvd_bjt.scs
Reading file:  /usr/local/XFAB/xh018/cadence/v10_1/spectre/v10_1_1/lpmos/models/mos/nhhvd.scs
Reading file:  /usr/local/XFAB/xh018/cadence/v10_1/spectre/v10_1_1/lpmos/models/mos/nhhvd_bjt.scs
Reading file:  /usr/local/XFAB/xh018/cadence/v10_1/spectre/v10_1_1/lpmos/photo.scs
Reading file:  /usr/local/XFAB/xh018/cadence/v10_1/spectre/v10_1_1/lpmos/models/photo/tm_pho.scs
Reading file:  /usr/local/XFAB/xh018/cadence/v10_1/spectre/v10_1_1/lpmos/models/photo/dphoa.scs
Reading file:  /usr/local/XFAB/xh018/cadence/v10_1/spectre/v10_1_1/lpmos/models/photo/dpho.va
Reading link:  /usr/local/cadence/spectre/tools.lnx86/spectre/etc/ahdl/constants.h
Reading file:  /usr/local/cadence/spectre_23.10.802/tools.lnx86/spectre/etc/ahdl/constants.vams
Reading link:  /usr/local/cadence/spectre/tools.lnx86/spectre/etc/ahdl/discipline.h
Reading file:  /usr/local/cadence/spectre_23.10.802/tools.lnx86/spectre/etc/ahdl/disciplines.vams
Reading file:  /usr/local/XFAB/xh018/cadence/v10_1/spectre/v10_1_1/lpmos/models/photo/dphob.scs
Reading file:  /usr/local/XFAB/xh018/cadence/v10_1/spectre/v10_1_1/lpmos/models/photo/dphoc.scs
Reading file:  /usr/local/XFAB/xh018/cadence/v10_1/spectre/v10_1_1/lpmos/models/photo/iphoto_uv.va
Reading file:  /usr/local/XFAB/xh018/cadence/v10_1/spectre/v10_1_1/lpmos/models/photo/dphoc_cat.scs
Reading file:  /usr/local/XFAB/xh018/cadence/v10_1/spectre/v10_1_1/lpmos/models/photo/dphoc0.scs
Reading file:  /usr/local/XFAB/xh018/cadence/v10_1/spectre/v10_1_1/lpmos/models/photo/dphoc0_cat.scs
Reading file:  /usr/local/XFAB/xh018/cadence/v10_1/spectre/v10_1_1/lpmos/models/photo/dphocfp.scs
Reading file:  /usr/local/XFAB/xh018/cadence/v10_1/spectre/v10_1_1/lpmos/models/photo/dphocfp_cat.scs
Reading file:  /usr/local/XFAB/xh018/cadence/v10_1/spectre/v10_1_1/lpmos/models/photo/dphod.scs
Reading file:  /usr/local/XFAB/xh018/cadence/v10_1/spectre/v10_1_1/lpmos/models/photo/dphod_an1.scs
Reading file:  /usr/local/XFAB/xh018/cadence/v10_1/spectre/v10_1_1/lpmos/models/photo/dphod_an2.scs
Reading file:  /usr/local/XFAB/xh018/cadence/v10_1/spectre/v10_1_1/lpmos/models/photo/dphod0.scs
Reading file:  /usr/local/XFAB/xh018/cadence/v10_1/spectre/v10_1_1/lpmos/models/photo/dphod0_an1.scs
Reading file:  /usr/local/XFAB/xh018/cadence/v10_1/spectre/v10_1_1/lpmos/models/photo/dphod0_an2.scs
Reading file:  /usr/local/XFAB/xh018/cadence/v10_1/spectre/v10_1_1/lpmos/models/photo/dphodfp.scs
Reading file:  /usr/local/XFAB/xh018/cadence/v10_1/spectre/v10_1_1/lpmos/models/photo/dphodfp_an1.scs
Reading file:  /usr/local/XFAB/xh018/cadence/v10_1/spectre/v10_1_1/lpmos/models/photo/dphodfp_an2.scs
Reading file:  /usr/local/XFAB/xh018/cadence/v10_1/spectre/v10_1_1/lpmos/models/photo/dspada0.scs
Reading file:  /usr/local/XFAB/xh018/cadence/v10_1/spectre/v10_1_1/lpmos/models/photo/ispad.va
Reading file:  /usr/local/XFAB/xh018/cadence/v10_1/spectre/v10_1_1/lpmos/models/photo/dapb.scs
Reading file:  /usr/local/XFAB/xh018/cadence/v10_1/spectre/v10_1_1/lpmos/models/photo/iphoto_apd_trig.va
Reading file:  /usr/local/XFAB/xh018/cadence/v10_1/spectre/v10_1_1/lpmos/models/photo/dapb_jun.scs
Reading file:  /usr/local/XFAB/xh018/cadence/v10_1/spectre/v10_1_1/lpmos/models/photo/dapb_trig.scs
Reading file:  /usr/local/XFAB/xh018/cadence/v10_1/spectre/v10_1_1/lpmos/models/photo/dapb0.scs
Reading file:  /usr/local/XFAB/xh018/cadence/v10_1/spectre/v10_1_1/lpmos/models/photo/dapb0_jun.scs
Reading file:  /usr/local/XFAB/xh018/cadence/v10_1/spectre/v10_1_1/lpmos/models/photo/dspb.scs
Reading file:  /usr/local/XFAB/xh018/cadence/v10_1/spectre/v10_1_1/lpmos/models/photo/ispad_trig.va
Reading file:  /usr/local/XFAB/xh018/cadence/v10_1/spectre/v10_1_1/lpmos/models/photo/dspb_jun.scs
Reading file:  /usr/local/XFAB/xh018/cadence/v10_1/spectre/v10_1_1/lpmos/models/photo/dspb_trig.scs
Reading file:  /usr/local/XFAB/xh018/cadence/v10_1/spectre/v10_1_1/lpmos/models/photo/dspb0.scs
Reading file:  /usr/local/XFAB/xh018/cadence/v10_1/spectre/v10_1_1/lpmos/models/photo/dspb0_jun.scs
Reading file:  /usr/local/XFAB/xh018/cadence/v10_1/spectre/v10_1_1/lpmos/models/photo/dspbfep.scs
Reading file:  /usr/local/XFAB/xh018/cadence/v10_1/spectre/v10_1_1/lpmos/models/photo/dapda.scs
Reading file:  /usr/local/XFAB/xh018/cadence/v10_1/spectre/v10_1_1/lpmos/models/photo/iphoto_apd.va
Reading file:  /usr/local/XFAB/xh018/cadence/v10_1/spectre/v10_1_1/lpmos/models/photo/dapda_cat.scs
Reading file:  /usr/local/XFAB/xh018/cadence/v10_1/spectre/v10_1_1/lpmos/models/photo/dapda0.scs
Reading file:  /usr/local/XFAB/xh018/cadence/v10_1/spectre/v10_1_1/lpmos/models/photo/dspada.scs
Reading file:  /usr/local/XFAB/xh018/cadence/v10_1/spectre/v10_1_1/lpmos/models/photo/dspada_cat.scs
Reading file:  /usr/local/XFAB/xh018/cadence/v10_1/spectre/v10_1_1/lpmos/res.scs
Reading file:  /usr/local/XFAB/xh018/cadence/v10_1/spectre/v10_1_1/lpmos/models/res/tm_res.scs
Reading file:  /usr/local/XFAB/xh018/cadence/v10_1/spectre/v10_1_1/lpmos/models/res/rdn.scs
Reading file:  /usr/local/XFAB/xh018/cadence/v10_1/spectre/v10_1_1/lpmos/models/res/rdn_esd.scs
Reading file:  /usr/local/XFAB/xh018/cadence/v10_1/spectre/v10_1_1/lpmos/models/res/rdp.scs
Reading file:  /usr/local/XFAB/xh018/cadence/v10_1/spectre/v10_1_1/lpmos/models/res/rdp_io.scs
Reading file:  /usr/local/XFAB/xh018/cadence/v10_1/spectre/v10_1_1/lpmos/models/res/rdp_esd.scs
Reading file:  /usr/local/XFAB/xh018/cadence/v10_1/spectre/v10_1_1/lpmos/models/res/rnw.scs
Reading file:  /usr/local/XFAB/xh018/cadence/v10_1/spectre/v10_1_1/lpmos/models/res/rnw_scr.scs
Reading file:  /usr/local/XFAB/xh018/cadence/v10_1/spectre/v10_1_1/lpmos/models/res/rdn3.scs
Reading file:  /usr/local/XFAB/xh018/cadence/v10_1/spectre/v10_1_1/lpmos/models/res/rdn3s.scs
Reading file:  /usr/local/XFAB/xh018/cadence/v10_1/spectre/v10_1_1/lpmos/models/res/rdp3.scs
Reading file:  /usr/local/XFAB/xh018/cadence/v10_1/spectre/v10_1_1/lpmos/models/res/rnw3.scs
Reading file:  /usr/local/XFAB/xh018/cadence/v10_1/spectre/v10_1_1/lpmos/models/res/rnw3_scr.scs
Reading file:  /usr/local/XFAB/xh018/cadence/v10_1/spectre/v10_1_1/lpmos/models/res/rdnwmv.scs
Reading file:  /usr/local/XFAB/xh018/cadence/v10_1/spectre/v10_1_1/lpmos/models/res/rnp1.scs
Reading file:  /usr/local/XFAB/xh018/cadence/v10_1/spectre/v10_1_1/lpmos/models/res/rnp1_3.scs
Reading file:  /usr/local/XFAB/xh018/cadence/v10_1/spectre/v10_1_1/lpmos/models/res/rpp1.scs
Reading file:  /usr/local/XFAB/xh018/cadence/v10_1/spectre/v10_1_1/lpmos/models/res/rpp1_3.scs
Reading file:  /usr/local/XFAB/xh018/cadence/v10_1/spectre/v10_1_1/lpmos/models/res/rpp1s.scs
Reading file:  /usr/local/XFAB/xh018/cadence/v10_1/spectre/v10_1_1/lpmos/models/res/rpp1s_3.scs
Reading file:  /usr/local/XFAB/xh018/cadence/v10_1/spectre/v10_1_1/lpmos/models/res/rnp1h.scs
Reading file:  /usr/local/XFAB/xh018/cadence/v10_1/spectre/v10_1_1/lpmos/models/res/rnp1h_3.scs
Reading file:  /usr/local/XFAB/xh018/cadence/v10_1/spectre/v10_1_1/lpmos/models/res/rpp1k1.scs
Reading file:  /usr/local/XFAB/xh018/cadence/v10_1/spectre/v10_1_1/lpmos/models/res/rpp1k1_3.scs
Reading file:  /usr/local/XFAB/xh018/cadence/v10_1/spectre/v10_1_1/lpmos/models/res/rctdn.scs
Reading file:  /usr/local/XFAB/xh018/cadence/v10_1/spectre/v10_1_1/lpmos/models/res/rctdp.scs
Reading file:  /usr/local/XFAB/xh018/cadence/v10_1/spectre/v10_1_1/lpmos/models/res/rctp1.scs
Reading file:  /usr/local/XFAB/xh018/cadence/v10_1/spectre/v10_1_1/lpmos/models/res/rsildn.scs
Reading file:  /usr/local/XFAB/xh018/cadence/v10_1/spectre/v10_1_1/lpmos/models/res/rsildp.scs
Reading file:  /usr/local/XFAB/xh018/cadence/v10_1/spectre/v10_1_1/lpmos/models/res/rsilnp1.scs
Reading file:  /usr/local/XFAB/xh018/cadence/v10_1/spectre/v10_1_1/lpmos/models/res/rsilpp1.scs
Reading file:  /usr/local/XFAB/xh018/cadence/v10_1/spectre/v10_1_1/lpmos/models/res/rsbdn.scs
Reading file:  /usr/local/XFAB/xh018/cadence/v10_1/spectre/v10_1_1/lpmos/models/res/rsbdp.scs
Reading file:  /usr/local/XFAB/xh018/cadence/v10_1/spectre/v10_1_1/lpmos/models/res/rsbdn3.scs
Reading file:  /usr/local/XFAB/xh018/cadence/v10_1/spectre/v10_1_1/lpmos/models/res/rsbdp3.scs
Reading file:  /usr/local/XFAB/xh018/cadence/v10_1/spectre/v10_1_1/lpmos/models/res/rsbnp1.scs
Reading file:  /usr/local/XFAB/xh018/cadence/v10_1/spectre/v10_1_1/lpmos/models/res/rsbpp1.scs
Reading file:  /usr/local/XFAB/xh018/cadence/v10_1/spectre/v10_1_1/lpmos/models/res/rsbpp1k1.scs
Reading file:  /usr/local/XFAB/xh018/cadence/v10_1/spectre/v10_1_1/lpmos/models/res/rm1.scs
Reading file:  /usr/local/XFAB/xh018/cadence/v10_1/spectre/v10_1_1/lpmos/models/res/rm2.scs
Reading file:  /usr/local/XFAB/xh018/cadence/v10_1/spectre/v10_1_1/lpmos/models/res/rm3.scs
Reading file:  /usr/local/XFAB/xh018/cadence/v10_1/spectre/v10_1_1/lpmos/models/res/rm4.scs
Reading file:  /usr/local/XFAB/xh018/cadence/v10_1/spectre/v10_1_1/lpmos/models/res/rm5.scs
Reading file:  /usr/local/XFAB/xh018/cadence/v10_1/spectre/v10_1_1/lpmos/models/res/rmtp.scs
Reading file:  /usr/local/XFAB/xh018/cadence/v10_1/spectre/v10_1_1/lpmos/models/res/rmtpl.scs
Reading file:  /usr/local/XFAB/xh018/cadence/v10_1/spectre/v10_1_1/lpmos/models/res/pfuse.scs
Reading file:  /usr/local/XFAB/xh018/cadence/v10_1/spectre/v10_1_1/lpmos/models/res/s_res.scs
Time for NDB Parsing: CPU = 101.679 ms, elapsed = 366.828 ms.
Time accumulated: CPU = 161.205 ms, elapsed = 366.829 ms.
Peak resident memory used = 187 Mbytes.


Warning from spectre during circuit read-in.
    WARNING (SFE-2628): "input.scs" 21: `switch' will override a  reserved primitive with identical name.

Time for Elaboration: CPU = 7.72 ms, elapsed = 7.62415 ms.
Time accumulated: CPU = 168.96 ms, elapsed = 374.489 ms.
Peak resident memory used = 198 Mbytes.


Notice from spectre during hierarchy flattening.
    The value 'psf' specified for the 'checklimitdest' option will no longer be supported in future releases. Use 'spectre -h' to see other recommended values for the 'checklimitdest' option.


Time for EDB Visiting: CPU = 283 us, elapsed = 283.003 us.
Time accumulated: CPU = 169.286 ms, elapsed = 374.814 ms.
Peak resident memory used = 200 Mbytes.


Notice from spectre during topology check.
    Only one connection to node `R'.
Notice from spectre during initial setup.
    Multithreading is disabled due to the size of the design being too small.


Netlist title:
        // Generated for: spectre


Global user options:
         psfversion = 1.4.0
            vabstol = 1e-06
            iabstol = 1e-12
               temp = 27
         compatible = spice2
               gmin = 1e-12
             rforce = 1
           maxnotes = 5
           maxwarns = 5
             digits = 5
               cols = 80
             pivrel = 0.001
           sensfile = ../psf/sens.output
     checklimitdest = psf
               save = all
           currents = all
             reltol = 0.001
               tnom = 27
             scalem = 1
              scale = 1

Scoped user options:

Circuit inventory:
              nodes 5
            bsim3v3 2     
            isource 1     
               vcvs 1     
            vsource 3     

Analysis and control statement inventory:
                 dc 2     
               info 7     

Output statements:
             .probe 0     
           .measure 0     
               save 1     


Notice from spectre during initial setup.
    APS enabled.

Time for parsing: CPU = 797 us, elapsed = 3.07393 ms.
Time accumulated: CPU = 170.107 ms, elapsed = 377.912 ms.
Peak resident memory used = 203 Mbytes.

~~~~~~~~~~~~~~~~~~~~~~
Pre-Simulation Summary
~~~~~~~~~~~~~~~~~~~~~~
   -   (APS) Multi-threading. The recommended number of threads is 1, consider adding +mt=1 on command line.
~~~~~~~~~~~~~~~~~~~~~~

******************
DC Analysis `dcOp'
******************

Opening the PSF file ../psf/dcOp.dc ...
Important parameter values:
    reltol = 1e-03
    abstol(V) = 1 uV
    abstol(I) = 1 pA
    temp = 27 C
    tnom = 27 C
    tempeffects = all
    gmindc = 1 pS
    rabsshort = 1 mOhm

Maximum value achieved for any signal of each quantity: 
V: V(R) = 200.5 V
I: I(V4:p) = 3.343 pA
Convergence achieved in 9 iterations.
DC simulation time: CPU = 798 us, elapsed = 2.01678 ms.
Total time required for dc analysis `dcOp': CPU = 813 us, elapsed = 2.03109 ms, util. = 40%.
Time accumulated: CPU = 173.892 ms, elapsed = 382.922 ms.
Peak resident memory used = 205 Mbytes.

dcOpInfo: writing operating point information to rawfile.

Opening the PSF file ../psf/dcOpInfo.info ...

****************************************
DC Analysis `dc': V5:dc = (0 V -> 3.3 V)
****************************************

Opening the PSF file ../psf/dc.dc ...
Important parameter values:
    reltol = 1e-03
    abstol(V) = 1 uV
    abstol(I) = 1 pA
    temp = 27 C
    tnom = 27 C
    tempeffects = all
    gmindc = 1 pS
    rabsshort = 1 mOhm
    dc: dc = 132 mV         (4 %), step = 66 mV           (2 %)
    dc: dc = 198 mV         (6 %), step = 66 mV           (2 %)
    dc: dc = 264 mV         (8 %), step = 66 mV           (2 %)
    dc: dc = 330 mV        (10 %), step = 66 mV           (2 %)
    dc: dc = 396 mV        (12 %), step = 66 mV           (2 %)
    dc: dc = 462 mV        (14 %), step = 66 mV           (2 %)
    dc: dc = 528 mV        (16 %), step = 66 mV           (2 %)
    dc: dc = 594 mV        (18 %), step = 66 mV           (2 %)
    dc: dc = 660 mV        (20 %), step = 66 mV           (2 %)
    dc: dc = 726 mV        (22 %), step = 66 mV           (2 %)
    dc: dc = 792 mV        (24 %), step = 66 mV           (2 %)
    dc: dc = 858 mV        (26 %), step = 66 mV           (2 %)
    dc: dc = 924 mV        (28 %), step = 66 mV           (2 %)
    dc: dc = 990 mV        (30 %), step = 66 mV           (2 %)
    dc: dc = 1.056 V       (32 %), step = 66 mV           (2 %)
    dc: dc = 1.122 V       (34 %), step = 66 mV           (2 %)
    dc: dc = 1.188 V       (36 %), step = 66 mV           (2 %)
    dc: dc = 1.254 V       (38 %), step = 66 mV           (2 %)
    dc: dc = 1.32 V        (40 %), step = 66 mV           (2 %)
    dc: dc = 1.386 V       (42 %), step = 66 mV           (2 %)
    dc: dc = 1.452 V       (44 %), step = 66 mV           (2 %)
    dc: dc = 1.518 V       (46 %), step = 66 mV           (2 %)
    dc: dc = 1.584 V       (48 %), step = 66 mV           (2 %)
    dc: dc = 1.65 V        (50 %), step = 66 mV           (2 %)
    dc: dc = 1.716 V       (52 %), step = 66 mV           (2 %)
    dc: dc = 1.782 V       (54 %), step = 66 mV           (2 %)
    dc: dc = 1.848 V       (56 %), step = 66 mV           (2 %)
    dc: dc = 1.914 V       (58 %), step = 66 mV           (2 %)
    dc: dc = 1.98 V        (60 %), step = 66 mV           (2 %)
    dc: dc = 2.046 V       (62 %), step = 66 mV           (2 %)
    dc: dc = 2.112 V       (64 %), step = 66 mV           (2 %)
    dc: dc = 2.178 V       (66 %), step = 66 mV           (2 %)
    dc: dc = 2.244 V       (68 %), step = 66 mV           (2 %)
    dc: dc = 2.31 V        (70 %), step = 66 mV           (2 %)
    dc: dc = 2.376 V       (72 %), step = 66 mV           (2 %)
    dc: dc = 2.442 V       (74 %), step = 66 mV           (2 %)
    dc: dc = 2.508 V       (76 %), step = 66 mV           (2 %)
    dc: dc = 2.574 V       (78 %), step = 66 mV           (2 %)
    dc: dc = 2.64 V        (80 %), step = 66 mV           (2 %)
    dc: dc = 2.706 V       (82 %), step = 66 mV           (2 %)
    dc: dc = 2.772 V       (84 %), step = 66 mV           (2 %)
    dc: dc = 2.838 V       (86 %), step = 66 mV           (2 %)
    dc: dc = 2.904 V       (88 %), step = 66 mV           (2 %)
    dc: dc = 2.97 V        (90 %), step = 66 mV           (2 %)
    dc: dc = 3.036 V       (92 %), step = 66 mV           (2 %)
    dc: dc = 3.102 V       (94 %), step = 66 mV           (2 %)
    dc: dc = 3.168 V       (96 %), step = 66 mV           (2 %)
    dc: dc = 3.234 V       (98 %), step = 66 mV           (2 %)
    dc: dc = 3.3 V        (100 %), step = 66 mV           (2 %)

Maximum value achieved for any signal of each quantity: 
V: V(R) = 120.6 V
I: I(V5:p) = 6.604 pA
DC simulation time: CPU = 1.312 ms, elapsed = 2.55704 ms.

Notice from spectre at dc = 3.3 V during DC analysis `dc'.
    The value of parameter 'dc' has been reset to the original value 1.65.

Total time required for dc analysis `dc': CPU = 1.321 ms, elapsed = 2.56681 ms, util. = 51.5%.
Time accumulated: CPU = 175.875 ms, elapsed = 387.352 ms.
Peak resident memory used = 206 Mbytes.

modelParameter: writing model parameter values to rawfile.

Opening the PSF file ../psf/modelParameter.info ...
element: writing instance parameter values to rawfile.

Opening the PSF file ../psf/element.info ...
outputParameter: writing output parameter values to rawfile.

Opening the PSF file ../psf/outputParameter.info ...
designParamVals: writing netlist parameters to rawfile.

Opening the PSFASCII file ../psf/designParamVals.info ...
primitives: writing primitives to rawfile.

Opening the PSFASCII file ../psf/primitives.info.primitives ...
subckts: writing subcircuits to rawfile.

Opening the PSFASCII file ../psf/subckts.info.subckts ...
Licensing Information:
Lic Summary:
[14:15:26.362152] Cdslmd servers:30000@cadence.cnfm.fr
[14:15:26.362163] Feature usage summary:
[14:15:26.362163] Virtuoso_Multi_mode_Simulation


Aggregate audit (2:15:26 PM, Thur Feb 5, 2026):
Time used: CPU = 183 ms, elapsed = 406 ms, util. = 45.1%.
Time spent in licensing: elapsed = 260 ms, percentage of total = 64.1%.
Peak memory used = 208 Mbytes.
Simulation started at: 2:15:25 PM, Thur Feb 5, 2026, ended at: 2:15:26 PM, Thur Feb 5, 2026, with elapsed time (wall clock): 406 ms.
spectre completes with 0 errors, 1 warning, and 6 notices.
